data/3ptb/ligand_BEN.pdbBEN
 OpenBabel08292521183D

  9  9  0  0  0  0  0  0  0  0999 V2000
   -0.1640   17.1800   18.7910 C   0  0  0  0  0  0  0  0  0  0  0  0
    0.5920   17.4390   19.9030 C   0  0  0  0  0  3  0  0  0  0  0  0
    1.4260   18.5640   19.9340 C   0  0  0  0  0  3  0  0  0  0  0  0
    1.4860   19.4310   18.8320 C   0  0  0  0  0  3  0  0  0  0  0  0
    0.7030   19.1590   17.7080 C   0  0  0  0  0  3  0  0  0  0  0  0
   -0.1170   18.0330   17.7020 C   0  0  0  0  0  3  0  0  0  0  0  0
   -0.9840   16.0570   18.7570 C   0  0  0  0  0  0  0  0  0  0  0  0
   -2.2450   16.1370   18.3700 N   0  0  0  0  0  2  0  0  0  0  0  0
   -0.4660   14.8570   18.9500 N   0  0  0  0  0  1  0  0  0  0  0  0
  1  2  1  0  0  0  0
  2  3  2  0  0  0  0
  4  3  1  0  0  0  0
  5  4  2  0  0  0  0
  6  5  1  0  0  0  0
  6  1  2  0  0  0  0
  7  1  1  0  0  0  0
  7  9  1  0  0  0  0
  8  7  2  0  0  0  0
M  END
>  <MODEL>
9

>  <REMARK>
 minimizedAffinity -3.50564766
 minimizedRMSD -1
  Name = data/3ptb/ligand_BEN.pdbBEN
  1 active torsions:
  status: ('A' for Active; 'I' for Inactive)
    1  A    between atoms: C_1  and  C_7
                            x       y       z     vdW  Elec       q    Type
                         _______ _______ _______ _____ _____    ______ ____

>  <TORSDO>
F 1

$$$$
