data/3ptb/ligand_BEN.pdbBEN
 OpenBabel08292521183D

  9  9  0  0  0  0  0  0  0  0999 V2000
   -1.3140   14.5450   17.5870 C   0  0  0  0  0  0  0  0  0  0  0  0
   -2.0710   15.2730   16.7080 C   0  0  0  0  0  3  0  0  0  0  0  0
   -2.3620   14.7530   15.4400 C   0  0  0  0  0  3  0  0  0  0  0  0
   -1.8860   13.4850   15.0690 C   0  0  0  0  0  3  0  0  0  0  0  0
   -1.1230   12.7510   15.9800 C   0  0  0  0  0  3  0  0  0  0  0  0
   -0.8460   13.2920   17.2330 C   0  0  0  0  0  3  0  0  0  0  0  0
   -1.0170   15.0670   18.8420 C   0  0  0  0  0  0  0  0  0  0  0  0
   -1.1490   14.3420   19.9380 N   0  0  0  0  0  1  0  0  0  0  0  0
   -0.4330   16.2490   18.9420 N   0  0  0  0  0  2  0  0  0  0  0  0
  1  7  1  0  0  0  0
  2  1  2  0  0  0  0
  3  2  1  0  0  0  0
  4  3  2  0  0  0  0
  4  5  1  0  0  0  0
  5  6  2  0  0  0  0
  6  1  1  0  0  0  0
  7  9  2  0  0  0  0
  7  8  1  0  0  0  0
M  END
>  <MODEL>
8

>  <REMARK>
 minimizedAffinity -4.00978184
 minimizedRMSD -1
  Name = data/3ptb/ligand_BEN.pdbBEN
  1 active torsions:
  status: ('A' for Active; 'I' for Inactive)
    1  A    between atoms: C_1  and  C_7
                            x       y       z     vdW  Elec       q    Type
                         _______ _______ _______ _____ _____    ______ ____

>  <TORSDO>
F 1

$$$$
