data/3ptb/ligand_BEN.pdbBEN
 OpenBabel08292521183D

  9  9  0  0  0  0  0  0  0  0999 V2000
   -1.0500   15.6890   18.1780 C   0  0  0  0  0  0  0  0  0  0  0  0
   -1.8390   15.9760   17.0970 C   0  0  0  0  0  3  0  0  0  0  0  0
   -2.1700   14.9640   16.1860 C   0  0  0  0  0  3  0  0  0  0  0  0
   -1.7000   13.6550   16.3800 C   0  0  0  0  0  3  0  0  0  0  0  0
   -0.9030   13.3760   17.4930 C   0  0  0  0  0  3  0  0  0  0  0  0
   -0.5870   14.4000   18.3820 C   0  0  0  0  0  3  0  0  0  0  0  0
   -0.7140   16.6960   19.0770 C   0  0  0  0  0  0  0  0  0  0  0  0
    0.2790   17.5320   18.8340 N   0  0  0  0  0  2  0  0  0  0  0  0
   -1.4970   16.9410   20.1140 N   0  0  0  0  0  1  0  0  0  0  0  0
  1  6  1  0  0  0  0
  1  7  1  0  0  0  0
  2  1  2  0  0  0  0
  3  4  2  0  0  0  0
  3  2  1  0  0  0  0
  4  5  1  0  0  0  0
  5  6  2  0  0  0  0
  7  9  1  0  0  0  0
  8  7  2  0  0  0  0
M  END
>  <MODEL>
5

>  <REMARK>
 minimizedAffinity -4.46983814
 minimizedRMSD -1
  Name = data/3ptb/ligand_BEN.pdbBEN
  1 active torsions:
  status: ('A' for Active; 'I' for Inactive)
    1  A    between atoms: C_1  and  C_7
                            x       y       z     vdW  Elec       q    Type
                         _______ _______ _______ _____ _____    ______ ____

>  <TORSDO>
F 1

$$$$
