data/3ptb/ligand_BEN.pdbBEN
 OpenBabel08292521183D

  9  9  0  0  0  0  0  0  0  0999 V2000
   -1.7290   15.7010   17.8170 C   0  0  0  0  0  0  0  0  0  0  0  0
   -1.6560   16.8580   17.0890 C   0  0  0  0  0  3  0  0  0  0  0  0
   -1.4610   18.0830   17.7410 C   0  0  0  0  0  3  0  0  0  0  0  0
   -1.3330   18.1280   19.1390 C   0  0  0  0  0  3  0  0  0  0  0  0
   -1.4010   16.9380   19.8670 C   0  0  0  0  0  3  0  0  0  0  0  0
   -1.5980   15.7350   19.1950 C   0  0  0  0  0  3  0  0  0  0  0  0
   -1.9330   14.4870   17.1700 C   0  0  0  0  0  0  0  0  0  0  0  0
   -2.3050   14.4370   15.9030 N   0  0  0  0  0  2  0  0  0  0  0  0
   -1.5910   13.3570   17.7650 N   0  0  0  0  0  1  0  0  0  0  0  0
  1  6  1  0  0  0  0
  2  3  1  0  0  0  0
  2  1  2  0  0  0  0
  3  4  2  0  0  0  0
  4  5  1  0  0  0  0
  6  5  2  0  0  0  0
  7  9  1  0  0  0  0
  7  1  1  0  0  0  0
  8  7  2  0  0  0  0
M  END
>  <MODEL>
7

>  <REMARK>
 minimizedAffinity -4.31427145
 minimizedRMSD -1
  Name = data/3ptb/ligand_BEN.pdbBEN
  1 active torsions:
  status: ('A' for Active; 'I' for Inactive)
    1  A    between atoms: C_1  and  C_7
                            x       y       z     vdW  Elec       q    Type
                         _______ _______ _______ _____ _____    ______ ____

>  <TORSDO>
F 1

$$$$
