data/3ptb/ligand_BEN.pdbBEN
 OpenBabel08292521183D

  9  9  0  0  0  0  0  0  0  0999 V2000
   -1.5630   15.6610   17.8260 C   0  0  0  0  0  0  0  0  0  0  0  0
   -2.2410   15.6560   16.6360 C   0  0  0  0  0  3  0  0  0  0  0  0
   -2.2230   14.5120   15.8280 C   0  0  0  0  0  3  0  0  0  0  0  0
   -1.5180   13.3680   16.2340 C   0  0  0  0  0  3  0  0  0  0  0  0
   -0.8380   13.3850   17.4550 C   0  0  0  0  0  3  0  0  0  0  0  0
   -0.8700   14.5360   18.2390 C   0  0  0  0  0  3  0  0  0  0  0  0
   -1.5730   16.8000   18.6230 C   0  0  0  0  0  0  0  0  0  0  0  0
   -1.4840   16.7210   19.9390 N   0  0  0  0  0  1  0  0  0  0  0  0
   -1.5000   17.9960   18.0640 N   0  0  0  0  0  2  0  0  0  0  0  0
  1  6  1  0  0  0  0
  1  7  1  0  0  0  0
  2  1  2  0  0  0  0
  3  4  2  0  0  0  0
  3  2  1  0  0  0  0
  4  5  1  0  0  0  0
  5  6  2  0  0  0  0
  7  8  1  0  0  0  0
  9  7  2  0  0  0  0
M  END
>  <MODEL>
4

>  <REMARK>
 minimizedAffinity -4.49014378
 minimizedRMSD -1
  Name = data/3ptb/ligand_BEN.pdbBEN
  1 active torsions:
  status: ('A' for Active; 'I' for Inactive)
    1  A    between atoms: C_1  and  C_7
                            x       y       z     vdW  Elec       q    Type
                         _______ _______ _______ _____ _____    ______ ____

>  <TORSDO>
F 1

$$$$
