data/3ptb/ligand_BEN.pdbBEN
 OpenBabel08292521183D

  9  9  0  0  0  0  0  0  0  0999 V2000
   -1.6250   14.4180   16.9340 C   0  0  0  0  0  0  0  0  0  0  0  0
   -2.3260   15.5790   17.1280 C   0  0  0  0  0  3  0  0  0  0  0  0
   -2.2080   16.2700   18.3410 C   0  0  0  0  0  3  0  0  0  0  0  0
   -1.3710   15.7820   19.3560 C   0  0  0  0  0  3  0  0  0  0  0  0
   -0.6570   14.6010   19.1400 C   0  0  0  0  0  3  0  0  0  0  0  0
   -0.7920   13.9320   17.9270 C   0  0  0  0  0  3  0  0  0  0  0  0
   -1.7500   13.7270   15.7330 C   0  0  0  0  0  0  0  0  0  0  0  0
   -1.2660   12.5070   15.5880 N   0  0  0  0  0  1  0  0  0  0  0  0
   -2.5080   14.2170   14.7670 N   0  0  0  0  0  2  0  0  0  0  0  0
  1  2  2  0  0  0  0
  1  6  1  0  0  0  0
  2  3  1  0  0  0  0
  3  4  2  0  0  0  0
  5  4  1  0  0  0  0
  6  5  2  0  0  0  0
  7  1  1  0  0  0  0
  8  7  1  0  0  0  0
  9  7  2  0  0  0  0
M  END
>  <MODEL>
2

>  <REMARK>
 minimizedAffinity -4.60073376
 minimizedRMSD -1
  Name = data/3ptb/ligand_BEN.pdbBEN
  1 active torsions:
  status: ('A' for Active; 'I' for Inactive)
    1  A    between atoms: C_1  and  C_7
                            x       y       z     vdW  Elec       q    Type
                         _______ _______ _______ _____ _____    ______ ____

>  <TORSDO>
F 1

$$$$
