data/3ptb/ligand_BEN.pdbBEN
 OpenBabel08292521183D

  9  9  0  0  0  0  0  0  0  0999 V2000
   -1.5340   15.6310   17.8240 C   0  0  0  0  0  0  0  0  0  0  0  0
   -0.8470   14.5240   18.2440 C   0  0  0  0  0  3  0  0  0  0  0  0
   -0.8340   13.3680   17.4520 C   0  0  0  0  0  3  0  0  0  0  0  0
   -1.5170   13.3430   16.2250 C   0  0  0  0  0  3  0  0  0  0  0  0
   -2.2060   14.4830   15.8060 C   0  0  0  0  0  3  0  0  0  0  0  0
   -2.2050   15.6180   16.6130 C   0  0  0  0  0  3  0  0  0  0  0  0
   -1.5550   16.7750   18.6150 C   0  0  0  0  0  0  0  0  0  0  0  0
   -1.4920   16.7010   19.9320 N   0  0  0  0  0  1  0  0  0  0  0  0
   -1.4650   17.9680   18.0520 N   0  0  0  0  0  2  0  0  0  0  0  0
  1  2  1  0  0  0  0
  1  7  1  0  0  0  0
  3  2  2  0  0  0  0
  4  3  1  0  0  0  0
  5  4  2  0  0  0  0
  5  6  1  0  0  0  0
  6  1  2  0  0  0  0
  7  8  1  0  0  0  0
  9  7  2  0  0  0  0
M  END
>  <MODEL>
3

>  <REMARK>
 minimizedAffinity -4.49828625
 minimizedRMSD -1
  Name = data/3ptb/ligand_BEN.pdbBEN
  1 active torsions:
  status: ('A' for Active; 'I' for Inactive)
    1  A    between atoms: C_1  and  C_7
                            x       y       z     vdW  Elec       q    Type
                         _______ _______ _______ _____ _____    ______ ____

>  <TORSDO>
F 1

$$$$
