MODEL 1
REMARK minimizedAffinity -4.64545059
REMARK minimizedRMSD -1
REMARK  Name = data/3ptb/ligand_BEN.pdbBEN
REMARK  1 active torsions:
REMARK  status: ('A' for Active; 'I' for Inactive)
REMARK    1  A    between atoms: C_1  and  C_7
REMARK                            x       y       z     vdW  Elec       q    Type
REMARK                         _______ _______ _______ _____ _____    ______ ____
ROOT
ATOM      1  C   UNL     1      -1.623  14.331  16.932  0.00  0.00    +0.000 A 
ATOM      2  C   UNL     1      -0.772  13.875  17.903  0.00  0.00    +0.000 A 
ATOM      3  C   UNL     1      -0.618  14.599  19.093  0.00  0.00    +0.000 A 
ATOM      4  C   UNL     1      -1.338  15.788  19.296  0.00  0.00    +0.000 A 
ATOM      5  C   UNL     1      -2.209  16.235  18.300  0.00  0.00    +0.000 A 
ATOM      6  C   UNL     1      -2.342  15.498  17.126  0.00  0.00    +0.000 A 
ENDROOT
BRANCH   1   7
ATOM      7  C   UNL     1      -1.768  13.617  15.747  0.00  0.00    +0.000 C 
ATOM      8  N   UNL     1      -2.368  14.143  14.695  0.00  0.00    +0.000 NA
ATOM      9  N   UNL     1      -1.152  12.456  15.599  0.00  0.00    +0.000 NA
ENDBRANCH   1   7
TORSDOF 1
ENDMDL
MODEL 2
REMARK minimizedAffinity -4.60073376
REMARK minimizedRMSD -1
REMARK  Name = data/3ptb/ligand_BEN.pdbBEN
REMARK  1 active torsions:
REMARK  status: ('A' for Active; 'I' for Inactive)
REMARK    1  A    between atoms: C_1  and  C_7
REMARK                            x       y       z     vdW  Elec       q    Type
REMARK                         _______ _______ _______ _____ _____    ______ ____
ROOT
ATOM      1  C   UNL     1      -1.625  14.418  16.934  0.00  0.00    +0.000 A 
ATOM      2  C   UNL     1      -2.326  15.579  17.128  0.00  0.00    +0.000 A 
ATOM      3  C   UNL     1      -2.208  16.270  18.341  0.00  0.00    +0.000 A 
ATOM      4  C   UNL     1      -1.371  15.782  19.356  0.00  0.00    +0.000 A 
ATOM      5  C   UNL     1      -0.657  14.601  19.140  0.00  0.00    +0.000 A 
ATOM      6  C   UNL     1      -0.792  13.932  17.927  0.00  0.00    +0.000 A 
ENDROOT
BRANCH   1   7
ATOM      7  C   UNL     1      -1.750  13.727  15.733  0.00  0.00    +0.000 C 
ATOM      8  N   UNL     1      -1.266  12.507  15.588  0.00  0.00    +0.000 NA
ATOM      9  N   UNL     1      -2.508  14.217  14.767  0.00  0.00    +0.000 NA
ENDBRANCH   1   7
TORSDOF 1
ENDMDL
MODEL 3
REMARK minimizedAffinity -4.49828625
REMARK minimizedRMSD -1
REMARK  Name = data/3ptb/ligand_BEN.pdbBEN
REMARK  1 active torsions:
REMARK  status: ('A' for Active; 'I' for Inactive)
REMARK    1  A    between atoms: C_1  and  C_7
REMARK                            x       y       z     vdW  Elec       q    Type
REMARK                         _______ _______ _______ _____ _____    ______ ____
ROOT
ATOM      1  C   UNL     1      -1.534  15.631  17.824  0.00  0.00    +0.000 A 
ATOM      2  C   UNL     1      -0.847  14.524  18.244  0.00  0.00    +0.000 A 
ATOM      3  C   UNL     1      -0.834  13.368  17.452  0.00  0.00    +0.000 A 
ATOM      4  C   UNL     1      -1.517  13.343  16.225  0.00  0.00    +0.000 A 
ATOM      5  C   UNL     1      -2.206  14.483  15.806  0.00  0.00    +0.000 A 
ATOM      6  C   UNL     1      -2.205  15.618  16.613  0.00  0.00    +0.000 A 
ENDROOT
BRANCH   1   7
ATOM      7  C   UNL     1      -1.555  16.775  18.615  0.00  0.00    +0.000 C 
ATOM      8  N   UNL     1      -1.492  16.701  19.932  0.00  0.00    +0.000 NA
ATOM      9  N   UNL     1      -1.465  17.968  18.052  0.00  0.00    +0.000 NA
ENDBRANCH   1   7
TORSDOF 1
ENDMDL
MODEL 4
REMARK minimizedAffinity -4.49014378
REMARK minimizedRMSD -1
REMARK  Name = data/3ptb/ligand_BEN.pdbBEN
REMARK  1 active torsions:
REMARK  status: ('A' for Active; 'I' for Inactive)
REMARK    1  A    between atoms: C_1  and  C_7
REMARK                            x       y       z     vdW  Elec       q    Type
REMARK                         _______ _______ _______ _____ _____    ______ ____
ROOT
ATOM      1  C   UNL     1      -1.563  15.661  17.826  0.00  0.00    +0.000 A 
ATOM      2  C   UNL     1      -2.241  15.656  16.636  0.00  0.00    +0.000 A 
ATOM      3  C   UNL     1      -2.223  14.512  15.828  0.00  0.00    +0.000 A 
ATOM      4  C   UNL     1      -1.518  13.368  16.234  0.00  0.00    +0.000 A 
ATOM      5  C   UNL     1      -0.838  13.385  17.455  0.00  0.00    +0.000 A 
ATOM      6  C   UNL     1      -0.870  14.536  18.239  0.00  0.00    +0.000 A 
ENDROOT
BRANCH   1   7
ATOM      7  C   UNL     1      -1.573  16.800  18.623  0.00  0.00    +0.000 C 
ATOM      8  N   UNL     1      -1.484  16.721  19.939  0.00  0.00    +0.000 NA
ATOM      9  N   UNL     1      -1.500  17.996  18.064  0.00  0.00    +0.000 NA
ENDBRANCH   1   7
TORSDOF 1
ENDMDL
MODEL 5
REMARK minimizedAffinity -4.46983814
REMARK minimizedRMSD -1
REMARK  Name = data/3ptb/ligand_BEN.pdbBEN
REMARK  1 active torsions:
REMARK  status: ('A' for Active; 'I' for Inactive)
REMARK    1  A    between atoms: C_1  and  C_7
REMARK                            x       y       z     vdW  Elec       q    Type
REMARK                         _______ _______ _______ _____ _____    ______ ____
ROOT
ATOM      1  C   UNL     1      -1.050  15.689  18.178  0.00  0.00    +0.000 A 
ATOM      2  C   UNL     1      -1.839  15.976  17.097  0.00  0.00    +0.000 A 
ATOM      3  C   UNL     1      -2.170  14.964  16.186  0.00  0.00    +0.000 A 
ATOM      4  C   UNL     1      -1.700  13.655  16.380  0.00  0.00    +0.000 A 
ATOM      5  C   UNL     1      -0.903  13.376  17.493  0.00  0.00    +0.000 A 
ATOM      6  C   UNL     1      -0.587  14.400  18.382  0.00  0.00    +0.000 A 
ENDROOT
BRANCH   1   7
ATOM      7  C   UNL     1      -0.714  16.696  19.077  0.00  0.00    +0.000 C 
ATOM      8  N   UNL     1       0.279  17.532  18.834  0.00  0.00    +0.000 NA
ATOM      9  N   UNL     1      -1.497  16.941  20.114  0.00  0.00    +0.000 NA
ENDBRANCH   1   7
TORSDOF 1
ENDMDL
MODEL 6
REMARK minimizedAffinity -4.31559706
REMARK minimizedRMSD -1
REMARK  Name = data/3ptb/ligand_BEN.pdbBEN
REMARK  1 active torsions:
REMARK  status: ('A' for Active; 'I' for Inactive)
REMARK    1  A    between atoms: C_1  and  C_7
REMARK                            x       y       z     vdW  Elec       q    Type
REMARK                         _______ _______ _______ _____ _____    ______ ____
ROOT
ATOM      1  C   UNL     1      -1.727  15.707  17.830  0.00  0.00    +0.000 A 
ATOM      2  C   UNL     1      -1.604  15.736  19.193  0.00  0.00    +0.000 A 
ATOM      3  C   UNL     1      -1.398  16.957  19.850  0.00  0.00    +0.000 A 
ATOM      4  C   UNL     1      -1.323  18.152  19.116  0.00  0.00    +0.000 A 
ATOM      5  C   UNL     1      -1.459  18.107  17.727  0.00  0.00    +0.000 A 
ATOM      6  C   UNL     1      -1.661  16.881  17.098  0.00  0.00    +0.000 A 
ENDROOT
BRANCH   1   7
ATOM      7  C   UNL     1      -1.921  14.494  17.178  0.00  0.00    +0.000 C 
ATOM      8  N   UNL     1      -2.273  14.445  15.906  0.00  0.00    +0.000 NA
ATOM      9  N   UNL     1      -1.588  13.364  17.778  0.00  0.00    +0.000 NA
ENDBRANCH   1   7
TORSDOF 1
ENDMDL
MODEL 7
REMARK minimizedAffinity -4.31427145
REMARK minimizedRMSD -1
REMARK  Name = data/3ptb/ligand_BEN.pdbBEN
REMARK  1 active torsions:
REMARK  status: ('A' for Active; 'I' for Inactive)
REMARK    1  A    between atoms: C_1  and  C_7
REMARK                            x       y       z     vdW  Elec       q    Type
REMARK                         _______ _______ _______ _____ _____    ______ ____
ROOT
ATOM      1  C   UNL     1      -1.729  15.701  17.817  0.00  0.00    +0.000 A 
ATOM      2  C   UNL     1      -1.656  16.858  17.089  0.00  0.00    +0.000 A 
ATOM      3  C   UNL     1      -1.461  18.083  17.741  0.00  0.00    +0.000 A 
ATOM      4  C   UNL     1      -1.333  18.128  19.139  0.00  0.00    +0.000 A 
ATOM      5  C   UNL     1      -1.401  16.938  19.867  0.00  0.00    +0.000 A 
ATOM      6  C   UNL     1      -1.598  15.735  19.195  0.00  0.00    +0.000 A 
ENDROOT
BRANCH   1   7
ATOM      7  C   UNL     1      -1.933  14.487  17.170  0.00  0.00    +0.000 C 
ATOM      8  N   UNL     1      -2.305  14.437  15.903  0.00  0.00    +0.000 NA
ATOM      9  N   UNL     1      -1.591  13.357  17.765  0.00  0.00    +0.000 NA
ENDBRANCH   1   7
TORSDOF 1
ENDMDL
MODEL 8
REMARK minimizedAffinity -4.00978184
REMARK minimizedRMSD -1
REMARK  Name = data/3ptb/ligand_BEN.pdbBEN
REMARK  1 active torsions:
REMARK  status: ('A' for Active; 'I' for Inactive)
REMARK    1  A    between atoms: C_1  and  C_7
REMARK                            x       y       z     vdW  Elec       q    Type
REMARK                         _______ _______ _______ _____ _____    ______ ____
ROOT
ATOM      1  C   UNL     1      -1.314  14.545  17.587  0.00  0.00    +0.000 A 
ATOM      2  C   UNL     1      -2.071  15.273  16.708  0.00  0.00    +0.000 A 
ATOM      3  C   UNL     1      -2.362  14.753  15.440  0.00  0.00    +0.000 A 
ATOM      4  C   UNL     1      -1.886  13.485  15.069  0.00  0.00    +0.000 A 
ATOM      5  C   UNL     1      -1.123  12.751  15.980  0.00  0.00    +0.000 A 
ATOM      6  C   UNL     1      -0.846  13.292  17.233  0.00  0.00    +0.000 A 
ENDROOT
BRANCH   1   7
ATOM      7  C   UNL     1      -1.017  15.067  18.842  0.00  0.00    +0.000 C 
ATOM      8  N   UNL     1      -1.149  14.342  19.938  0.00  0.00    +0.000 NA
ATOM      9  N   UNL     1      -0.433  16.249  18.942  0.00  0.00    +0.000 NA
ENDBRANCH   1   7
TORSDOF 1
ENDMDL
MODEL 9
REMARK minimizedAffinity -3.50564766
REMARK minimizedRMSD -1
REMARK  Name = data/3ptb/ligand_BEN.pdbBEN
REMARK  1 active torsions:
REMARK  status: ('A' for Active; 'I' for Inactive)
REMARK    1  A    between atoms: C_1  and  C_7
REMARK                            x       y       z     vdW  Elec       q    Type
REMARK                         _______ _______ _______ _____ _____    ______ ____
ROOT
ATOM      1  C   UNL     1      -0.164  17.180  18.791  0.00  0.00    +0.000 A 
ATOM      2  C   UNL     1       0.592  17.439  19.903  0.00  0.00    +0.000 A 
ATOM      3  C   UNL     1       1.426  18.564  19.934  0.00  0.00    +0.000 A 
ATOM      4  C   UNL     1       1.486  19.431  18.832  0.00  0.00    +0.000 A 
ATOM      5  C   UNL     1       0.703  19.159  17.708  0.00  0.00    +0.000 A 
ATOM      6  C   UNL     1      -0.117  18.033  17.702  0.00  0.00    +0.000 A 
ENDROOT
BRANCH   1   7
ATOM      7  C   UNL     1      -0.984  16.057  18.757  0.00  0.00    +0.000 C 
ATOM      8  N   UNL     1      -2.245  16.137  18.370  0.00  0.00    +0.000 NA
ATOM      9  N   UNL     1      -0.466  14.857  18.950  0.00  0.00    +0.000 NA
ENDBRANCH   1   7
TORSDOF 1
ENDMDL
MODEL 10
REMARK minimizedAffinity -3.46777987
REMARK minimizedRMSD -1
REMARK  Name = data/3ptb/ligand_BEN.pdbBEN
REMARK  1 active torsions:
REMARK  status: ('A' for Active; 'I' for Inactive)
REMARK    1  A    between atoms: C_1  and  C_7
REMARK                            x       y       z     vdW  Elec       q    Type
REMARK                         _______ _______ _______ _____ _____    ______ ____
ROOT
ATOM      1  C   UNL     1      -0.448  16.987  18.631  0.00  0.00    +0.000 A 
ATOM      2  C   UNL     1      -0.452  17.872  17.586  0.00  0.00    +0.000 A 
ATOM      3  C   UNL     1       0.299  19.052  17.667  0.00  0.00    +0.000 A 
ATOM      4  C   UNL     1       1.062  19.329  18.813  0.00  0.00    +0.000 A 
ATOM      5  C   UNL     1       1.063  18.413  19.867  0.00  0.00    +0.000 A 
ATOM      6  C   UNL     1       0.306  17.248  19.763  0.00  0.00    +0.000 A 
ENDROOT
BRANCH   1   7
ATOM      7  C   UNL     1      -1.201  15.821  18.554  0.00  0.00    +0.000 C 
ATOM      8  N   UNL     1      -2.385  15.804  17.968  0.00  0.00    +0.000 NA
ATOM      9  N   UNL     1      -0.668  14.667  18.917  0.00  0.00    +0.000 NA
ENDBRANCH   1   7
TORSDOF 1
ENDMDL
