data/3ptb/ligand_BEN.pdbBEN
 OpenBabel08292521183D

  9  9  0  0  0  0  0  0  0  0999 V2000
   -1.7270   15.7070   17.8300 C   0  0  0  0  0  0  0  0  0  0  0  0
   -1.6040   15.7360   19.1930 C   0  0  0  0  0  3  0  0  0  0  0  0
   -1.3980   16.9570   19.8500 C   0  0  0  0  0  3  0  0  0  0  0  0
   -1.3230   18.1520   19.1160 C   0  0  0  0  0  3  0  0  0  0  0  0
   -1.4590   18.1070   17.7270 C   0  0  0  0  0  3  0  0  0  0  0  0
   -1.6610   16.8810   17.0980 C   0  0  0  0  0  3  0  0  0  0  0  0
   -1.9210   14.4940   17.1780 C   0  0  0  0  0  0  0  0  0  0  0  0
   -2.2730   14.4450   15.9060 N   0  0  0  0  0  2  0  0  0  0  0  0
   -1.5880   13.3640   17.7780 N   0  0  0  0  0  1  0  0  0  0  0  0
  1  2  1  0  0  0  0
  2  3  2  0  0  0  0
  4  3  1  0  0  0  0
  5  4  2  0  0  0  0
  6  5  1  0  0  0  0
  6  1  2  0  0  0  0
  7  9  1  0  0  0  0
  7  1  1  0  0  0  0
  8  7  2  0  0  0  0
M  END
>  <MODEL>
6

>  <REMARK>
 minimizedAffinity -4.31559706
 minimizedRMSD -1
  Name = data/3ptb/ligand_BEN.pdbBEN
  1 active torsions:
  status: ('A' for Active; 'I' for Inactive)
    1  A    between atoms: C_1  and  C_7
                            x       y       z     vdW  Elec       q    Type
                         _______ _______ _______ _____ _____    ______ ____

>  <TORSDO>
F 1

$$$$
