data/3ptb/ligand_BEN.pdbBEN
 OpenBabel08292521183D

  9  9  0  0  0  0  0  0  0  0999 V2000
   -1.6230   14.3310   16.9320 C   0  0  0  0  0  0  0  0  0  0  0  0
   -0.7720   13.8750   17.9030 C   0  0  0  0  0  3  0  0  0  0  0  0
   -0.6180   14.5990   19.0930 C   0  0  0  0  0  3  0  0  0  0  0  0
   -1.3380   15.7880   19.2960 C   0  0  0  0  0  3  0  0  0  0  0  0
   -2.2090   16.2350   18.3000 C   0  0  0  0  0  3  0  0  0  0  0  0
   -2.3420   15.4980   17.1260 C   0  0  0  0  0  3  0  0  0  0  0  0
   -1.7680   13.6170   15.7470 C   0  0  0  0  0  0  0  0  0  0  0  0
   -2.3680   14.1430   14.6950 N   0  0  0  0  0  2  0  0  0  0  0  0
   -1.1520   12.4560   15.5990 N   0  0  0  0  0  1  0  0  0  0  0  0
  1  6  2  0  0  0  0
  1  2  1  0  0  0  0
  2  3  2  0  0  0  0
  3  4  1  0  0  0  0
  5  4  2  0  0  0  0
  6  5  1  0  0  0  0
  7  1  1  0  0  0  0
  8  7  2  0  0  0  0
  9  7  1  0  0  0  0
M  END
>  <MODEL>
1

>  <REMARK>
 minimizedAffinity -4.64545059
 minimizedRMSD -1
  Name = data/3ptb/ligand_BEN.pdbBEN
  1 active torsions:
  status: ('A' for Active; 'I' for Inactive)
    1  A    between atoms: C_1  and  C_7
                            x       y       z     vdW  Elec       q    Type
                         _______ _______ _______ _____ _____    ______ ____

>  <TORSDO>
F 1

$$$$
