data/3ptb/ligand_BEN.pdbBEN
 OpenBabel08292521183D

  9  9  0  0  0  0  0  0  0  0999 V2000
   -0.4480   16.9870   18.6310 C   0  0  0  0  0  0  0  0  0  0  0  0
   -0.4520   17.8720   17.5860 C   0  0  0  0  0  3  0  0  0  0  0  0
    0.2990   19.0520   17.6670 C   0  0  0  0  0  3  0  0  0  0  0  0
    1.0620   19.3290   18.8130 C   0  0  0  0  0  3  0  0  0  0  0  0
    1.0630   18.4130   19.8670 C   0  0  0  0  0  3  0  0  0  0  0  0
    0.3060   17.2480   19.7630 C   0  0  0  0  0  3  0  0  0  0  0  0
   -1.2010   15.8210   18.5540 C   0  0  0  0  0  0  0  0  0  0  0  0
   -2.3850   15.8040   17.9680 N   0  0  0  0  0  2  0  0  0  0  0  0
   -0.6680   14.6670   18.9170 N   0  0  0  0  0  1  0  0  0  0  0  0
  1  6  1  0  0  0  0
  2  3  1  0  0  0  0
  2  1  2  0  0  0  0
  3  4  2  0  0  0  0
  4  5  1  0  0  0  0
  6  5  2  0  0  0  0
  7  1  1  0  0  0  0
  7  9  1  0  0  0  0
  8  7  2  0  0  0  0
M  END
>  <MODEL>
10

>  <REMARK>
 minimizedAffinity -3.46777987
 minimizedRMSD -1
  Name = data/3ptb/ligand_BEN.pdbBEN
  1 active torsions:
  status: ('A' for Active; 'I' for Inactive)
    1  A    between atoms: C_1  and  C_7
                            x       y       z     vdW  Elec       q    Type
                         _______ _______ _______ _____ _____    ______ ____

>  <TORSDO>
F 1

$$$$
