REMARK  Name = data/3ptb/ligand_BEN.pdbBEN
REMARK  1 active torsions:
REMARK  status: ('A' for Active; 'I' for Inactive)
REMARK    1  A    between atoms: C_1  and  C_7
REMARK                            x       y       z     vdW  Elec       q    Type
REMARK                         _______ _______ _______ _____ _____    ______ ____
ROOT
ATOM      1  C   UNL     1      -1.853  14.311  16.658  0.00  0.00    +0.000 A 
ATOM      2  C   UNL     1      -2.107  15.653  16.758  0.00  0.00    +0.000 A 
ATOM      3  C   UNL     1      -1.774  16.341  17.932  0.00  0.00    +0.000 A 
ATOM      4  C   UNL     1      -1.175  15.662  19.005  0.00  0.00    +0.000 A 
ATOM      5  C   UNL     1      -0.914  14.295  18.885  0.00  0.00    +0.000 A 
ATOM      6  C   UNL     1      -1.257  13.634  17.708  0.00  0.00    +0.000 A 
ENDROOT
BRANCH   1   7
ATOM      7  C   UNL     1      -2.193  13.627  15.496  0.00  0.00    +0.000 C 
ATOM      8  N   UNL     1      -2.797  14.235  14.491  0.00  0.00    +0.000 NA
ATOM      9  N   UNL     1      -1.762  12.391  15.309  0.00  0.00    +0.000 NA
ENDBRANCH   1   7
TORSDOF 1
